REMARK  17 active torsions:
REMARK  status: ('A' for Active; 'I' for Inactive)
REMARK    1  A    between atoms: CA_2  and  C_14 
REMARK    2  A    between atoms: CA_2  and  CB_3 
REMARK    3  A    between atoms: CB_3  and  CG_4 
REMARK       I    between atoms: C_14  and  N_16 
REMARK    4  A    between atoms: N_16  and  CA_17 
REMARK    5  A    between atoms: CA_23  and  CB_26 
REMARK    6  A    between atoms: CB_26  and  CG_27 
REMARK    7  A    between atoms: CA_35  and  CB_36 
REMARK    8  A    between atoms: CB_36  and  CG_37 
REMARK    9  A    between atoms: CA_49  and  CB_52 
REMARK   10  A    between atoms: CB_52  and  CG_53 
REMARK   11  A    between atoms: CG_53  and  CD_54 
REMARK   12  A    between atoms: CD_54  and  CE_55 
REMARK   13  A    between atoms: CA_58  and  CB_61 
REMARK   14  A    between atoms: CA_65  and  C_66 
REMARK       I    between atoms: C_66  and  N_70 
REMARK   15  A    between atoms: N_70  and  CA_71 
REMARK   16  A    between atoms: CA_71  and  C_72 
REMARK   17  A    between atoms: CA_71  and  CB_74 
ROOT
ATOM      1  N   4J2 A   1     202.895 333.691 231.733  1.00 20.95     0.626 N 
ATOM      2  CA  4J2 A   1     203.167 334.624 232.856  1.00 20.95     0.385 C 
ENDROOT
BRANCH   2   3
ATOM      3  C   4J2 A   1     203.167 336.065 232.335  1.00 20.95     0.289 C 
ATOM      4  N   CYS A   2     203.580 337.029 233.143  1.00 20.19    -0.228 NA
ATOM      5  O   4J2 A   1     202.805 336.264 231.168  1.00 20.95    -0.268 OA
BRANCH   4   6
ATOM      6  CA  CYS A   2     203.781 338.375 232.638  1.00 20.19     0.198 C 
ATOM      7  C   CYS A   2     205.277 338.711 232.555  1.00 20.19     0.275 C 
ATOM      8  O   CYS A   2     206.092 338.051 233.179  1.00 20.19    -0.268 OA
ATOM      9  N   TYR A   3     205.625 339.703 231.738  1.00 19.64    -0.228 NA
ATOM     10  CA  TYR A   3     206.974 340.275 231.679  1.00 19.64     0.191 C 
ATOM     11  C   TYR A   3     206.959 341.589 230.923  1.00 19.64     0.275 C 
ATOM     12  O   TYR A   3     206.255 341.742 229.950  1.00 19.64    -0.268 OA
ATOM     13  N   DTR A   4     207.744 342.541 231.391  1.00 18.66    -0.228 NA
ATOM     14  CA  DTR A   4     207.700 343.887 230.873  1.00 18.66     0.191 C 
ATOM     15  C   DTR A   4     206.307 344.432 231.080  1.00 18.66     0.275 C 
ATOM     16  N   LYS A   5     205.560 344.589 229.996  1.00 19.43    -0.229 NA
ATOM     17  O   DTR A   4     205.901 344.692 232.199  1.00 18.66    -0.268 OA
ATOM     18  CA  LYS A   5     204.223 345.150 230.081  1.00 19.43     0.186 C 
ATOM     19  C   LYS A   5     203.167 344.298 229.409  1.00 19.43     0.274 C 
ATOM     20  O   LYS A   5     202.190 344.820 228.914  1.00 19.43    -0.268 OA
ATOM     21  N   VAL A   6     203.361 342.987 229.390  1.00 20.16    -0.229 NA
ATOM     22  CA  VAL A   6     202.462 342.075 228.702  1.00 20.16     0.186 C 
ATOM     23  C   VAL A   6     202.280 340.833 229.557  1.00 20.16     0.274 C 
ATOM     24  N   CYS A   7     201.116 340.220 229.448  1.00 21.15    -0.228 NA
ATOM     25  O   VAL A   6     203.178 340.429 230.293  1.00 20.16    -0.268 OA
ATOM     26  CA  CYS A   7     200.890 338.882 229.959  1.00 21.15     0.198 C 
ATOM     27  CB  CYS A   7     199.837 338.872 231.083  1.00 21.15     0.103 C 
ATOM     28  SG  CYS A   7     200.180 340.003 232.459  1.00 21.15    -0.080 SA
ATOM     29  SG  CYS A   2     201.296 338.949 233.803  1.00 20.19    -0.080 SA
ATOM     30  CB  CYS A   2     203.032 339.384 233.510  1.00 20.19     0.103 C 
BRANCH  10  31
ATOM     31  CB  TYR A   3     207.998 339.311 231.054  1.00 19.64     0.060 C 
BRANCH  31  32
ATOM     32  CG  TYR A   3     207.738 338.837 229.649  1.00 19.64    -0.020 A 
ATOM     33  CD2 TYR A   3     207.149 337.611 229.416  1.00 19.64    -0.002 A 
ATOM     34  CE2 TYR A   3     206.925 337.175 228.146  1.00 19.64     0.027 A 
ATOM     35  CZ  TYR A   3     207.321 337.946 227.081  1.00 19.64     0.131 A 
ATOM     36  OH  TYR A   3     207.096 337.502 225.811  1.00 19.64    -0.190 OA
ATOM     37  CE1 TYR A   3     207.918 339.158 227.283  1.00 19.64     0.027 A 
ATOM     38  CD1 TYR A   3     208.138 339.592 228.554  1.00 19.64    -0.002 A 
ENDBRANCH  31  32
ENDBRANCH  10  31
BRANCH  14  39
ATOM     39  CB  DTR A   4     208.733 344.767 231.578  1.00 18.66     0.062 C 
BRANCH  39  40
ATOM     40  CG  DTR A   4     208.718 346.233 231.219  1.00 18.66     0.001 A 
ATOM     41  CD1 DTR A   4     208.401 347.260 232.036  1.00 18.66     0.095 A 
ATOM     42  NE1 DTR A   4     208.523 348.449 231.383  1.00 18.66    -0.244 NA
ATOM     43  CE2 DTR A   4     208.926 348.207 230.102  1.00 18.66     0.081 A 
ATOM     44  CZ2 DTR A   4     209.195 349.088 229.065  1.00 18.66     0.019 A 
ATOM     45  CD2 DTR A   4     209.075 346.822 229.966  1.00 18.66     0.015 A 
ATOM     46  CH2 DTR A   4     209.616 348.556 227.883  1.00 18.66     0.002 A 
ATOM     47  CZ3 DTR A   4     209.773 347.185 227.716  1.00 18.66     0.000 A 
ATOM     48  CE3 DTR A   4     209.510 346.311 228.740  1.00 18.66     0.001 A 
ENDBRANCH  39  40
ENDBRANCH  14  39
BRANCH  18  49
ATOM     49  CB  LYS A   5     204.213 346.541 229.479  1.00 19.43     0.034 C 
BRANCH  49  50
ATOM     50  CG  LYS A   5     204.938 347.545 230.289  1.00 19.43     0.005 C 
BRANCH  50  51
ATOM     51  CD  LYS A   5     204.990 348.845 229.577  1.00 19.43     0.041 C 
BRANCH  51  52
ATOM     52  CE  LYS A   5     205.210 349.968 230.538  1.00 19.43     0.338 C 
ATOM     53  NZ  LYS A   5     205.388 351.242 229.812  1.00 19.43     0.618 N 
ENDBRANCH  51  52
ENDBRANCH  50  51
ENDBRANCH  49  50
ENDBRANCH  18  49
BRANCH  22  54
ATOM     54  CB  VAL A   6     202.976 341.682 227.285  1.00 20.16     0.032 C 
ATOM     55  CG2 VAL A   6     204.260 340.847 227.353  1.00 20.16     0.003 C 
ATOM     56  CG1 VAL A   6     203.167 342.896 226.423  1.00 20.16     0.003 C 
ENDBRANCH  22  54
BRANCH  26  57
ATOM     57  C   CYS A   7     200.453 338.008 228.799  1.00 21.15     0.275 C 
ATOM     58  O   CYS A   7     199.701 338.450 227.934  1.00 21.15    -0.268 OA
ATOM     59  N   THR A   8     200.947 336.782 228.769  1.00 21.67    -0.226 NA
BRANCH  59  60
ATOM     60  CA  THR A   8     200.725 335.915 227.631  1.00 21.67     0.218 C 
BRANCH  60  61
ATOM     61  C   THR A   8     200.152 334.578 228.066  1.00 21.67     0.298 C 
ATOM     62  N   NH2 A   9     199.617 333.831 227.111  1.00 21.54    -0.105 N 
ATOM     63  O   THR A   8     200.186 334.232 229.234  1.00 21.67    -0.266 OA
ENDBRANCH  60  61
BRANCH  60  64
ATOM     64  CB  THR A   8     202.030 335.685 226.827  1.00 21.67     0.184 C 
ATOM     65  CG2 THR A   8     202.700 337.012 226.482  1.00 21.67     0.038 C 
ATOM     66  OG1 THR A   8     202.939 334.891 227.592  1.00 21.67    -0.221 OA
ENDBRANCH  60  64
ENDBRANCH  59  60
ENDBRANCH  26  57
ENDBRANCH   4   6
ENDBRANCH   2   3
BRANCH   2  67
ATOM     67  CB  4J2 A   1     202.227 334.345 234.032  1.00 20.95     0.075 C 
BRANCH  67  68
ATOM     68  CG  4J2 A   1     200.752 334.525 233.777  1.00 20.95    -0.019 A 
ATOM     69  CD2 4J2 A   1     200.085 335.615 234.253  1.00 20.95    -0.004 A 
ATOM     70  CE2 4J2 A   1     198.698 335.787 234.057  1.00 20.95    -0.000 A 
ATOM     71  CE3 4J2 A   1     197.995 336.913 234.540  1.00 20.95    -0.000 A 
ATOM     72  CZ1 4J2 A   1     197.985 334.798 233.341  1.00 20.95    -0.000 A 
ATOM     73  CE4 4J2 A   1     196.659 337.043 234.337  1.00 20.95    -0.000 A 
ATOM     74  CZ3 4J2 A   1     195.948 336.064 233.632  1.00 20.95    -0.000 A 
ATOM     75  CZ2 4J2 A   1     196.589 334.974 233.143  1.00 20.95    -0.000 A 
ATOM     76  CE1 4J2 A   1     198.685 333.674 232.858  1.00 20.95    -0.000 A 
ATOM     77  CD1 4J2 A   1     200.023 333.539 233.081  1.00 20.95    -0.004 A 
ENDBRANCH  67  68
ENDBRANCH   2  67
TORSDOF 17
